/*--------------------------------*- C++ -*----------------------------------*\
| =========                 |                                                 |
| \\      /  F ield         | OpenFOAM: The Open Source CFD Toolbox           |
|  \\    /   O peration     | Version:  v1912                                 |
|   \\  /    A nd           | Web:      www.OpenFOAM.com                      |
|    \\/     M anipulation  |                                                 |
\*---------------------------------------------------------------------------*/
FoamFile
{
    version     2.0;
    format      ascii;
    class       dictionary;
    location    "system";
    object      fvSolution;
}
// * * * * * * * * * * * * * * * * * * * * * * * * * * * * * * * * * * * * * //

solvers
{
    "alpha.fluid.*"
    {
        nAlphaCorr      2; 
        nAlphaSubCycles 1;
        cAlpha          1; 

        MULESCorr       yes;
        nLimiterIter    5;

        solver          smoothSolver;
        smoother        symGaussSeidel;
        tolerance       1e-8;
        relTol          0;
    }

    "pcorr.*"
    {
        solver          PCG;
        preconditioner  DIC;
        tolerance       1e-5;
        relTol          0;
    }

    p_rgh
    {
        solver          PCG;
        preconditioner  DIC;
        tolerance       1e-07;
        relTol          0.05;
    }

    p_rghFinal
    {
        $p_rgh;
        relTol          0;
    }

    U
    {
        solver          smoothSolver;
        smoother        symGaussSeidel;
        tolerance       1e-06;
        relTol          0;
    }
    
    T
    {
        solver          PBiCG;
        preconditioner  DILU;
        tolerance       1e-07;
        relTol          0;
    }

    TFinal
    {
        $T;
        tolerance       1e-04;
        relTol          0;
    }
}

PIMPLE
{
    momentumPredictor   no; 
    nOuterCorrectors    1;
    nCorrectors         2;
    nNonOrthogonalCorrectors 1;
}

relaxationFactors
{
    equations
    {
        ".*" 1;
    }
}

// ************************************************************************* //
