/*--------------------------------*- C++ -*----------------------------------*\
| =========                 |                                                 |
| \\      /  F ield         | OpenFOAM: The Open Source CFD Toolbox           |
|  \\    /   O peration     | Version:  v1912                                 |
|   \\  /    A nd           | Web:      www.OpenFOAM.com                      |
|    \\/     M anipulation  |                                                 |
\*---------------------------------------------------------------------------*/
FoamFile
{
    version     2.0;
    format      ascii;
    class       volVectorField;
    location    "0";
    object      U;
}
// * * * * * * * * * * * * * * * * * * * * * * * * * * * * * * * * * * * * * //

dimensions      [0 1 -1 0 0 0 0];

internalField   uniform (0 0 0);

boundaryField
{

    terrain 
    {
        type            noSlip;
    }
    
    inletWall1
    {
      type                 fixedValue; flowRateInletVelocity;
      value                uniform (0  0  4.18e-3); 
    }

    inletWall2
    {
      type                 fixedValue; flowRateInletVelocity;
      value                uniform (0  0  4.18e-3); 
    }
    
    atmosphere
    {
        type            pressureInletOutletVelocity;
        value           uniform (0 0 0);
    }

    defaultFaces
    {
        type            empty;
    }
}

// ************************************************************************* //
