/*--------------------------------*- C++ -*----------------------------------*\
| =========                 |                                                 |
| \\      /  F ield         | OpenFOAM: The Open Source CFD Toolbox           |
|  \\    /   O peration     | Version:  v1912                                 |
|   \\  /    A nd           | Website:  www.openfoam.com                      |
|    \\/     M anipulation  |                                                 |
\*---------------------------------------------------------------------------*/
FoamFile
{
    version     2.0;
    format      ascii;
    class       featureEdgeMesh;
    location    "constant/triSurface";
    object      Fogo_topography.eMesh;
}
// * * * * * * * * * * * * * * * * * * * * * * * * * * * * * * * * * * * * * //


// points:

6655
(
(0 8000 0)
(8000 8000 0)
(0 0 0)
(8000 0 0)
(0 8000 1649.34)
(8000 8000 1259.84)
(0 5360 2405.3)
(8000 4680 1578.62)
(0 4640 2404.2)
(8000 4400 1607.1)
(0 4080 2334.93)
(8000 3600 1722.82)
(8000 3400 1680.5)
(0 2720 2199.15)
(0 1520 1921.15)
(0 1280 1778.78)
(0 1080 1816.5)
(0 0 1568.61)
(8000 0 1500.59)
(200 8000 1687.39)
(280 8000 1665.08)
(360 8000 1709.63)
(520 8000 1776.08)
(640 8000 1791.11)
(1200 8000 1936.09)
(1280 8000 1926.22)
(1440 8000 2021.66)
(1840 0 2050.27)
(2120 8000 2301.57)
(2440 8000 2370.46)
(2920 8000 1971.54)
(3640 0 2179.85)
(3960 0 2180.41)
(6000 0 1855.44)
(2520 7960 2271.37)
(2720 7960 2132.87)
(2960 7960 1992.08)
(2360 7920 2406.3)
(2760 7920 2112.5)
(2840 7920 2021.23)
(2880 7920 2043.4)
(2360 7880 2419.84)
(2640 7880 2176.65)
(1640 7840 2174.76)
(2600 7840 2208.27)
(1640 7800 2195.99)
(2680 7800 2181.52)
(2960 7800 1926)
(3080 7800 1884.15)
(2320 7760 2438.8)
(2400 7760 2366.04)
(2720 7760 2168.4)
(2760 7760 2150.69)
(3080 7760 1929.33)
(3240 7760 1760.03)
(2600 7720 2133.93)
(2720 7720 2153.2)
(2760 7720 2145.69)
(2840 7720 2043.2)
(2920 7720 1972.6)
(3120 7720 1909.13)
(480 7680 1911.95)
(1000 7680 2008.27)
(2280 7680 2473.18)
(2400 7680 2344.35)
(2640 7680 2106.44)
(2920 7680 1924.87)
(3080 7680 1927.06)
(3200 7680 1808.07)
(4880 7680 1723.6)
(2440 7640 2120.24)
(2720 7640 2037.16)
(3120 7640 1862.77)
(3160 7640 1832.52)
(4920 7640 1727.04)
(1640 7600 2217.93)
(2560 7600 2139.84)
(3280 7600 1733.11)
(120 7560 1898.52)
(2200 7560 2514.75)
(2480 7560 2114.65)
(2560 7560 2116.61)
(2600 7520 2015.47)
(2440 7480 2090.91)
(1480 7440 2299.79)
(2040 7440 2475.55)
(2080 7440 2480.42)
(2280 7440 2329.46)
(2640 7440 1929.13)
(2600 7400 1927.85)
(1920 7360 2377.76)
(2240 7360 2288.09)
(2480 7360 2017.55)
(2520 7360 1998.66)
(1840 7320 2401.61)
(2360 7320 2158.47)
(2440 7320 2040.01)
(2600 7280 1933.49)
(1800 7240 2409.74)
(1760 7160 2453.2)
(2040 7160 2287.74)
(2360 7120 2114.72)
(1440 7000 2473.05)
(1920 7000 2617.02)
(5760 7000 1775.14)
(1560 6920 2566.95)
(1600 6920 2580.95)
(1880 6880 2587.72)
(5640 6880 1777.98)
(1760 6840 2706.49)
(2960 6840 1764.78)
(1640 6800 2669.53)
(1840 6800 2676.1)
(2320 6800 2208.14)
(1840 6760 2657.95)
(1960 6760 2563.9)
(2320 6760 2225.17)
(2400 6720 2193.94)
(2440 6720 2170.3)
(1680 6680 2704.78)
(1720 6680 2692.04)
(2400 6680 2174.47)
(2440 6680 2166.55)
(1840 6640 2597.84)
(2200 6640 2256.78)
(2760 6640 1966.72)
(1880 6600 2563.14)
(1960 6600 2478.97)
(2240 6600 2212.31)
(2520 6600 2095.13)
(2800 6600 1965.5)
(2880 6600 1930.3)
(2400 6560 2113.23)
(2840 6560 1939.26)
(2880 6560 1930.84)
(1440 6520 2633.77)
(2040 6520 2296.66)
(1440 6480 2633.62)
(2280 6480 2142.82)
(2400 6480 2084.35)
(2680 6480 1956.76)
(1720 6440 2453.88)
(1760 6440 2430.06)
(2120 6440 2221.12)
(2240 6440 2164.24)
(1680 6400 2438.68)
(1760 6400 2375.47)
(3000 6400 1843.06)
(3080 6400 1805.5)
(1440 6360 2613.89)
(1520 6360 2542.33)
(1560 6360 2523.4)
(3040 6360 1836.85)
(1600 6320 2415.19)
(2400 6320 1949.55)
(4480 6320 1825.59)
(1320 6280 2629.75)
(1680 6280 2350.69)
(2040 6280 2137.65)
(1280 6240 2615.15)
(1960 6240 2165.68)
(2040 6240 2125.73)
(3120 6240 1827.57)
(6280 6240 1841.23)
(2120 6200 1917.75)
(1960 6160 2059.91)
(2040 6160 2044.47)
(1240 6120 2555.15)
(1360 6120 2477.97)
(1480 6120 2339.07)
(3240 6120 1806.87)
(1120 6080 2653.57)
(2000 6080 2018.82)
(1160 6040 2613.34)
(1320 6040 2507.49)
(1120 6000 2663.62)
(2080 6000 1828.54)
(1160 5960 2593.35)
(2120 5960 1804.01)
(1040 5920 2679.74)
(1280 5920 2424.79)
(1320 5920 2410.99)
(1680 5920 2056.92)
(1040 5880 2676.6)
(1120 5840 2609.55)
(1240 5840 2414.32)
(1680 5840 1967.21)
(1000 5800 2690.22)
(1240 5800 2391.19)
(960 5760 2688.72)
(1120 5720 2608.29)
(1320 5720 2210.64)
(960 5680 2696.8)
(1400 5680 2120.41)
(1360 5640 2118.04)
(1400 5640 2116.87)
(1080 5600 2549.25)
(1280 5600 2142.83)
(1080 5560 2518.47)
(1360 5560 2119.5)
(1400 5560 2090.91)
(1520 5520 1924.89)
(880 5480 2712.5)
(1360 5480 2104.58)
(880 5440 2714.33)
(1240 5440 2126.66)
(1360 5440 2074.73)
(7280 5440 1774.15)
(920 5400 2670.27)
(1080 5400 2366.16)
(7120 5400 1822.18)
(1000 5360 2502.83)
(1120 5360 2355.04)
(7440 5360 1719.73)
(7640 5360 1603.71)
(1040 5320 2417.49)
(1240 5320 2129.83)
(1280 5320 2106.65)
(1400 5320 1913.07)
(760 5280 2712.92)
(880 5280 2598.88)
(7400 5280 1753.9)
(7720 5280 1585.16)
(760 5240 2710.9)
(800 5240 2696.86)
(1040 5240 2393.81)
(7800 5240 1562.51)
(720 5200 2720.36)
(880 5200 2518.2)
(1120 5200 2197.77)
(1280 5200 2016.49)
(5280 5200 2010.15)
(7440 5200 1770.76)
(7800 5200 1575.72)
(720 5160 2712.84)
(5280 5160 2017.76)
(880 5120 2277.44)
(1080 5120 2150.7)
(640 5040 2677.16)
(1000 5040 2338.65)
(640 5000 2668.65)
(720 5000 2669.72)
(760 5000 2641.55)
(600 4960 2665.63)
(1280 4960 1959.14)
(720 4920 2578.18)
(7440 4920 1780.09)
(600 4880 2643.38)
(640 4880 2622.82)
(1160 4880 2148.82)
(7480 4880 1775.4)
(560 4840 2640.69)
(920 4840 2295.35)
(1000 4840 2266.39)
(1320 4840 1813.08)
(7400 4840 1859.73)
(560 4800 2642.04)
(800 4800 2378.97)
(880 4800 2375.19)
(1040 4800 2226.09)
(7400 4800 1860.63)
(600 4760 2627.02)
(880 4760 2315.47)
(1160 4760 2123.33)
(960 4720 2189.81)
(1080 4720 2141.64)
(680 4680 2535.41)
(720 4680 2356.66)
(1000 4680 2198.92)
(1040 4680 2202.94)
(7240 4680 2022.45)
(7720 4680 1734.66)
(1000 4640 2224.81)
(1040 4640 2204.01)
(1120 4640 2125.19)
(7040 4640 2162.65)
(7080 4640 2146.96)
(7320 4640 1997.26)
(7920 4640 1605.89)
(640 4600 2632.18)
(760 4600 2259.51)
(800 4600 2237.57)
(880 4600 2245.09)
(7280 4600 2036.97)
(7360 4600 1974.2)
(7640 4600 1821.61)
(1160 4560 2096.94)
(1200 4560 2068.86)
(1280 4560 1871.41)
(7080 4560 2212.11)
(7160 4560 2146.84)
(7400 4560 1958.35)
(7520 4560 1866.42)
(640 4520 2557.06)
(760 4520 2395.3)
(7840 4520 1729.11)
(1160 4480 2096.65)
(720 4440 2262.08)
(1200 4440 2075.8)
(1320 4440 1828.88)
(7040 4440 2316.14)
(7800 4440 1755.65)
(7880 4440 1684.13)
(7160 4400 2259.5)
(720 4360 2277.26)
(800 4360 2263.27)
(7880 4360 1748.86)
(640 4320 2591.94)
(1160 4320 2073.8)
(7800 4320 1826.79)
(7840 4320 1806.78)
(7880 4320 1777.99)
(560 4280 2652.46)
(6000 4280 2701.7)
(6560 4280 2706.39)
(6640 4280 2642.13)
(720 4240 2474.56)
(840 4240 2271.33)
(6000 4240 2727.25)
(6680 4240 2634.08)
(6240 4200 2788.99)
(6520 4200 2756.6)
(6640 4200 2665.52)
(640 4160 2573.78)
(760 4160 2366.18)
(1160 4160 2092.05)
(560 4120 2619.39)
(6000 4120 2753.11)
(6120 4120 2810.6)
(6840 4120 2525.84)
(7320 4120 2164.3)
(520 4080 2616.23)
(720 4080 2281.98)
(1120 4080 2147.8)
(6440 4080 2687.22)
(6800 4080 2558.78)
(640 4040 2498.72)
(720 4040 2300.05)
(800 4040 2293.62)
(1080 4040 2168.06)
(6120 4040 2790.72)
(800 4000 2293.24)
(840 4000 2279.18)
(1040 4000 2165.31)
(6000 4000 2739.15)
(6040 4000 2771.05)
(6080 4000 2782.04)
(1080 3960 2134.53)
(1200 3960 1819.91)
(5960 3960 2714.28)
(6240 3960 2715.48)
(6040 3920 2760.27)
(6080 3920 2775.63)
(960 3880 2133.54)
(1120 3880 1899.67)
(5840 3880 2642.88)
(5960 3880 2703.23)
(6280 3880 2721.39)
(6520 3880 2750.57)
(600 3840 2586.65)
(640 3840 2551.88)
(1000 3840 2147.07)
(1080 3840 1906.33)
(1200 3840 1856.83)
(6520 3840 2742.01)
(560 3800 2602.55)
(1000 3800 2140.56)
(1160 3800 1832.79)
(6480 3800 2745.12)
(640 3760 2558.27)
(6200 3760 2767.84)
(680 3720 2501.49)
(5920 3720 2616.37)
(6440 3720 2743.45)
(600 3680 2553.99)
(6600 3680 2646.04)
(560 3640 2555.61)
(520 3600 2529.37)
(880 3600 2121.75)
(520 3560 2517.61)
(4880 3560 2041.94)
(880 3520 2113.36)
(520 3480 2492.04)
(640 3480 2381.82)
(880 3480 2121.12)
(560 3440 2473.85)
(840 3440 2136.78)
(520 3400 2465.71)
(520 3360 2440.9)
(560 3360 2440.58)
(640 3360 2371.39)
(880 3360 2066.41)
(800 3320 2149.1)
(840 3320 2119.34)
(1040 3320 1855.87)
(360 3280 2451.37)
(520 3280 2386.63)
(640 3280 2281.4)
(720 3280 2210.34)
(360 3240 2457.65)
(440 3240 2435.91)
(600 3240 2344.62)
(400 3200 2457.84)
(520 3200 2378.73)
(7040 3200 2158.56)
(840 3160 2050.39)
(920 3160 1929.57)
(7120 3160 2091.6)
(640 3120 2258.27)
(800 3120 2074.96)
(400 3080 2438.18)
(480 3080 2375.28)
(520 3080 2343.36)
(760 3040 2082.88)
(480 3000 2358.05)
(800 3000 2020.15)
(840 3000 2007.47)
(3640 3000 1843.99)
(440 2960 2406.47)
(560 2960 2351.5)
(480 2920 2410.37)
(840 2920 2099.05)
(600 2880 2360.52)
(440 2840 2415.86)
(1000 2840 1912.13)
(520 2800 2437.04)
(560 2800 2413.79)
(600 2760 2394.36)
(1040 2760 1863.81)
(640 2720 2327.67)
(880 2720 2119.72)
(560 2680 2440.65)
(1040 2680 1913.23)
(3640 2680 1851.29)
(960 2640 2097.63)
(1080 2640 1851.91)
(1960 2640 1810.17)
(600 2600 2408.65)
(960 2600 2134.54)
(640 2560 2379.98)
(2080 2560 1813.04)
(760 2520 2269.67)
(800 2480 2249.71)
(1080 2480 2080.87)
(720 2440 2332.2)
(1240 2440 1798.08)
(640 2400 2316.56)
(760 2400 2277.38)
(1080 2400 2078.46)
(1240 2400 1810.81)
(680 2360 2335.94)
(1160 2360 2027.04)
(1160 2320 1989.71)
(6920 2320 1901.76)
(6960 2320 1889.79)
(760 2280 2264.39)
(6960 2280 1884.37)
(1200 2240 1964.03)
(1320 2240 1808.01)
(720 2200 2336.54)
(920 2200 2237.84)
(7000 2200 1871.26)
(6960 2160 1884.06)
(880 2120 2332.9)
(1240 2120 1957.85)
(1120 2080 2043.09)
(3720 2080 1955.29)
(920 2000 2273.38)
(960 2000 2268.56)
(1040 2000 2224.25)
(1440 2000 1845.63)
(640 1960 2228.13)
(1200 1960 2069)
(1480 1960 1823.45)
(3760 1960 1946.65)
(1240 1920 2054.15)
(1440 1920 1856.93)
(3800 1920 1938.83)
(7000 1920 1821.55)
(1120 1880 2228.31)
(1280 1880 2032.3)
(1400 1880 1966.54)
(1560 1880 1810.78)
(200 1800 2086.22)
(1480 1800 1929.48)
(1120 1760 2262.77)
(1320 1760 2021.35)
(1520 1760 1910.3)
(200 1720 2051.64)
(1200 1720 2187.67)
(1360 1720 2034.47)
(1560 1720 1899.12)
(160 1680 2024.12)
(1240 1680 2181.16)
(1680 1680 1796.56)
(800 1640 2106.8)
(1160 1640 2260.09)
(1240 1640 2215.17)
(1720 1640 1819.95)
(1320 1600 2199.18)
(720 1560 2079.3)
(1240 1560 2340.13)
(1320 1560 2244.51)
(1680 1560 1888.25)
(1760 1520 1842.96)
(1320 1480 2336.35)
(1440 1480 2214.4)
(1840 1440 1852.16)
(160 1400 1922.75)
(920 1400 2177.6)
(1760 1400 1913.29)
(1880 1400 1866.51)
(1400 1360 2381.88)
(1440 1320 2415.35)
(1840 1320 1923.05)
(1640 1280 2292.74)
(2040 1280 1846.34)
(2080 1280 1835.54)
(1400 1240 2465.97)
(1680 1240 2278.59)
(1400 1200 2476.32)
(1800 1200 2066.77)
(6320 1200 1863.61)
(7440 1200 1728.41)
(1640 1160 2419.06)
(4920 1160 1915.48)
(4960 1160 1907.14)
(1680 1120 2408.34)
(1760 1120 2333.94)
(2280 1120 1823.53)
(4960 1120 1904.95)
(1640 1080 2439.8)
(1720 1080 2417.36)
(1840 1080 2300.32)
(2120 1080 1931.98)
(2320 1080 1821.1)
(1680 1040 2444.77)
(1800 1040 2386.15)
(1840 1000 2405.79)
(2360 1000 1891.84)
(1880 960 2384.32)
(1960 960 2333.42)
(5080 960 1960.11)
(5120 960 1931.58)
(2000 920 2330.19)
(2440 920 1952.54)
(5080 920 1972.78)
(5160 920 1909.29)
(2040 880 2356.81)
(2440 880 1981.39)
(5040 880 2019.05)
(2080 840 2367.18)
(3120 840 1829.88)
(4800 840 2083.59)
(5160 840 1968.68)
(5360 840 1864.16)
(7480 840 1718.09)
(2120 800 2379.46)
(2200 800 2340.61)
(2560 800 2021.38)
(3480 800 1888.94)
(4680 800 2094.57)
(1160 760 2192.39)
(2160 760 2386.57)
(2240 760 2377.35)
(2400 760 2247.34)
(3080 760 1930.18)
(4880 760 2131.42)
(4960 760 2088.17)
(5400 760 1918.36)
(2280 720 2397.74)
(2480 720 2277.51)
(4560 720 2167.03)
(5080 720 2020.24)
(5480 720 1933.6)
(5560 720 1889.53)
(1240 680 2193.53)
(2320 680 2398.16)
(2360 680 2364.04)
(3000 680 2080.92)
(3680 680 2057.81)
(4800 680 2196.34)
(2320 640 2403.06)
(2560 640 2340.8)
(3040 640 2113.75)
(4440 640 2233.47)
(4760 640 2223.23)
(5200 640 2095.15)
(5480 640 1981.03)
(5560 640 1938.64)
(2600 600 2331.06)
(3880 600 2143.47)
(4760 600 2235.33)
(5200 600 2128.1)
(5240 600 2118.87)
(2800 560 2307.23)
(4520 560 2299.37)
(5160 560 2131.59)
(5240 560 2129.98)
(5600 560 1951.07)
(2960 520 2279.45)
(3480 520 2298.7)
(5440 520 2059.01)
(5480 520 2036.26)
(2800 480 2363.63)
(2840 480 2361.92)
(2920 480 2318.27)
(3240 480 2298.26)
(3360 480 2305.72)
(3400 480 2331.4)
(4000 480 2317.08)
(2840 440 2365.27)
(3160 440 2366.45)
(3440 440 2344.97)
(3480 440 2345.79)
(3520 440 2346.56)
(3720 440 2338.57)
(3960 440 2346.54)
(4080 440 2344.43)
(3320 400 2341.65)
(3680 400 2332.05)
(4040 400 2346.31)
(240 280 1695.96)
(5840 240 1909.82)
(1880 80 2081)
(400 7960 1720.14)
(880 7960 1825.09)
(2560 7960 2080)
(2760 7960 1940.5)
(2440 7920 2168.51)
(2480 7920 2135.49)
(3040 7920 1765.37)
(3120 7920 1730.97)
(1280 7880 1975.41)
(2600 7880 2116.91)
(3240 7880 1692.35)
(2880 7840 1933.66)
(2960 7840 1882.5)
(800 7800 1895.03)
(2360 7800 2277.09)
(3160 7800 1772.11)
(400 7760 1823.08)
(800 7760 1909.8)
(2640 7760 2074.21)
(2840 7760 1979.45)
(3280 7760 1693.88)
(2960 7720 1846.75)
(1200 7680 2045.16)
(2320 7680 2210.88)
(2840 7680 1950.08)
(3120 7680 1817.52)
(480 7640 1911.68)
(600 7640 1931.74)
(640 7640 1944.84)
(1000 7640 2007.92)
(1520 7640 2145.43)
(1640 7640 2196.01)
(2280 7640 2156.2)
(5720 7640 1654.03)
(1000 7600 2027.86)
(1240 7600 2086.52)
(1280 7600 2100.57)
(1520 7600 2140.48)
(2480 7600 2037.85)
(2640 7600 1980.46)
(3320 7600 1663.05)
(2240 7560 2144.85)
(2600 7560 1957.11)
(2680 7560 1909.01)
(80 7520 1870.94)
(2440 7520 2032.59)
(2640 7520 1911.8)
(2680 7520 1867.49)
(1720 7480 2281.63)
(2200 7480 2157.97)
(2240 7480 2139.42)
(3000 7480 1713.65)
(3040 7480 1697.38)
(1600 7400 2257.87)
(1960 7400 2270.41)
(2040 7400 2232.12)
(2280 7400 2121.67)
(2360 7400 2059.68)
(2840 7400 1712.15)
(2080 7360 2205.89)
(2400 7360 2048.86)
(2600 7360 1819.83)
(2800 7360 1718.71)
(1720 7320 2333.77)
(1920 7320 2299.46)
(2160 7320 2160.42)
(2320 7320 2074.45)
(2680 7320 1754.07)
(2760 7320 1742.64)
(1400 7280 2297.97)
(1800 7280 2362.27)
(2360 7280 2050.56)
(1920 7240 2297.13)
(2520 7240 1914.76)
(1760 7200 2411.9)
(1720 7160 2434.03)
(1760 7120 2444.12)
(2440 7120 2009.17)
(1760 7080 2483.92)
(1800 7080 2478.25)
(1920 7080 2371.66)
(2360 7080 2079.2)
(2480 6880 2053.85)
(1880 6760 2441.63)
(1760 6720 2620.08)
(1960 6720 2398.53)
(1800 6680 2600.76)
(1880 6680 2553.01)
(2240 6640 2174.43)
(2280 6600 2099.6)
(2280 6560 2078.81)
(2320 6520 2044.67)
(2720 6520 1915.01)
(2760 6520 1899.84)
(1480 6480 2581.08)
(1520 6480 2559.07)
(2120 6480 2194.07)
(1600 6440 2474.68)
(1480 6400 2558.59)
(2200 6400 1977.86)
(2280 6400 1922.37)
(1480 6360 2526.74)
(1600 6360 2408.24)
(1640 6360 2368.27)
(2040 6360 2117.53)
(2080 6360 2095.41)
(3080 6360 1763.34)
(1720 6320 2273.81)
(2040 6320 2105.7)
(6360 6320 1770.91)
(1400 6280 2536.36)
(2120 6280 1945.93)
(1720 6240 2135.52)
(1320 6200 2486.55)
(1280 6160 2513.19)
(1880 6160 2004.74)
(1920 6160 2024.44)
(1320 6120 2458.67)
(1960 6120 2000.45)
(1160 6080 2565.42)
(1320 6080 2459.83)
(2080 6080 1822.44)
(2080 6040 1811.58)
(2160 6040 1780.1)
(1160 6000 2534.62)
(1240 6000 2481.3)
(1320 6000 2335.05)
(1440 5960 2174.88)
(1400 5920 2185.09)
(1720 5920 1915.5)
(1840 5920 1825.67)
(2000 5920 1784.77)
(1440 5880 2136.06)
(1680 5880 1917.37)
(1840 5880 1816.88)
(1040 5840 2617.88)
(1160 5840 2243.92)
(1200 5840 2228.09)
(1280 5840 2192.98)
(1320 5800 2154.79)
(1360 5800 2189.85)
(1480 5800 2062.21)
(1080 5760 2594.09)
(1320 5760 2136.06)
(1000 5720 2620.37)
(1040 5720 2601.27)
(1360 5720 2106.11)
(1520 5720 1986.76)
(1040 5680 2597.44)
(1320 5600 2104.41)
(1520 5600 1925.53)
(1560 5600 1885.26)
(1160 5560 2139.17)
(1440 5560 1958.24)
(1400 5520 1960.3)
(1000 5480 2192.9)
(7240 5440 1761.01)
(7320 5440 1719.62)
(1000 5400 2182.3)
(1040 5400 2161.09)
(1400 5400 1901.8)
(1480 5400 1818.58)
(1520 5400 1813.49)
(7280 5400 1758.67)
(7640 5400 1560.82)
(7120 5360 1795.11)
(7520 5360 1647.88)
(920 5320 2246.32)
(960 5320 2227.34)
(1360 5320 1912.25)
(7640 5320 1540.35)
(1040 5280 2178.14)
(1160 5280 2110.12)
(1440 5280 1835.25)
(7360 5280 1738.74)
(880 5240 2338.74)
(1480 5240 1824.43)
(800 5200 2571.48)
(1080 5200 2139.75)
(1440 5200 1827.51)
(840 5160 2311.92)
(720 5080 2647.26)
(1080 5080 2107.29)
(1360 5080 1855.95)
(720 5040 2641.35)
(1120 5040 2113.56)
(840 5000 2181.57)
(1000 5000 2103.5)
(1040 5000 2112.76)
(1200 5000 1942.47)
(1280 5000 1890.35)
(1400 5000 1770.84)
(640 4960 2645.76)
(760 4960 2220.85)
(1000 4960 2094.37)
(1120 4960 2107.12)
(7960 4960 1419.41)
(680 4920 2574.57)
(1000 4920 2107.36)
(1040 4920 2128.4)
(1280 4920 1826.69)
(720 4880 2366.86)
(1320 4880 1785.07)
(7440 4880 1736.87)
(1040 4840 2128.65)
(600 4800 2568.11)
(920 4800 2220.11)
(1240 4800 1840.27)
(720 4760 2237.29)
(1120 4760 2094.73)
(1240 4760 1852.58)
(7400 4760 1833.98)
(920 4720 2143.44)
(1000 4720 2133.46)
(1040 4720 2122.9)
(7320 4720 1932.69)
(7960 4720 1535.1)
(1080 4680 2117.34)
(1240 4680 1833.95)
(7360 4680 1883.16)
(680 4640 2237.01)
(7360 4640 1894.72)
(1160 4600 2018.22)
(1240 4600 1819.74)
(1280 4600 1797.51)
(7080 4600 2131.64)
(7280 4560 2026.28)
(7560 4560 1817.64)
(7720 4560 1731.7)
(7760 4560 1700.05)
(720 4520 2225.05)
(1040 4520 2125.44)
(1240 4520 1787.29)
(7040 4520 2231.82)
(7120 4520 2158.98)
(640 4480 2248.82)
(7080 4480 2219.44)
(7160 4480 2155.26)
(7160 4440 2183.65)
(7840 4440 1678.66)
(7920 4440 1539.95)
(1240 4400 1806.74)
(680 4360 2214.3)
(760 4360 2216.52)
(7160 4360 2227.16)
(7760 4360 1765.81)
(7960 4360 1614.82)
(360 4320 2531.39)
(680 4320 2215.24)
(7920 4320 1656.24)
(720 4280 2262.21)
(1240 4280 1775.91)
(600 4240 2583.05)
(760 4240 2246.01)
(1280 4240 1769.35)
(1160 4200 1960.79)
(1240 4200 1795.97)
(7960 4200 1699.55)
(840 4160 2263.9)
(7160 4160 2205.76)
(680 4120 2239.76)
(1200 4120 1760.16)
(6160 4120 2748.25)
(6360 4120 2660.86)
(6400 4120 2673.5)
(6480 4120 2679.78)
(800 4080 2239.11)
(1160 4040 1822.45)
(5800 4040 2587.97)
(6440 4040 2654.14)
(760 4000 2235.93)
(1000 4000 2140.77)
(1160 4000 1805.7)
(1200 4000 1774.01)
(6240 4000 2683)
(1240 3960 1761.26)
(6280 3960 2663.02)
(1040 3920 1920.38)
(1240 3920 1757.36)
(1200 3880 1757.62)
(6040 3880 2671.66)
(6360 3880 2667.53)
(680 3840 2246.82)
(1080 3800 1838.15)
(1080 3760 1798.55)
(5920 3760 2609.75)
(6440 3760 2720.11)
(960 3720 1957.32)
(1040 3720 1816.31)
(5960 3720 2606.92)
(680 3680 2242.28)
(1040 3680 1811.25)
(6640 3680 2598.11)
(920 3640 1920.13)
(4880 3640 2014.31)
(960 3600 1877.04)
(80 3560 2332.06)
(200 3560 2369)
(640 3560 2249.44)
(920 3560 1880.42)
(40 3520 2320.2)
(640 3520 2214.65)
(960 3520 1868.01)
(920 3480 1890.81)
(640 3440 2196.44)
(960 3440 1856.18)
(4600 3440 1978.38)
(7000 3440 2271.22)
(7960 3440 1667.49)
(640 3400 2188.28)
(800 3400 2027.78)
(920 3400 1890.17)
(480 3320 2331.32)
(640 3320 2199.35)
(720 3320 2112.16)
(400 3280 2410.15)
(920 3280 1887.43)
(7040 3280 2165.88)
(520 3240 2341.32)
(920 3240 1866.47)
(7120 3200 2085.45)
(440 3080 2384.35)
(760 3080 2025.22)
(840 3080 1960.37)
(880 3080 1917.57)
(7000 3080 2090.55)
(7040 3080 2067.35)
(440 3040 2367.1)
(560 3040 2260.93)
(680 3040 2108.72)
(760 3000 2004.99)
(480 2960 2332.66)
(520 2920 2359.38)
(640 2920 2221.58)
(880 2920 1910.51)
(920 2880 1909.67)
(1000 2880 1879.4)
(480 2840 2383.68)
(640 2840 2237.51)
(880 2840 1915.13)
(1040 2800 1843.05)
(640 2760 2242.45)
(920 2760 1882.89)
(40 2720 2198.18)
(1000 2720 1872.96)
(7800 2720 1604.45)
(920 2680 1936.59)
(720 2640 2254.46)
(1120 2640 1802.07)
(1040 2560 1820.24)
(1120 2560 1808.41)
(720 2520 2237.71)
(1160 2480 1788.62)
(1200 2440 1788.5)
(680 2400 2306.67)
(800 2400 2190.55)
(1160 2400 1798.22)
(1280 2400 1776.06)
(760 2360 2197.22)
(840 2360 2160.9)
(1240 2360 1781.43)
(760 2320 2209.76)
(800 2280 2187.54)
(920 2280 2108.09)
(1200 2280 1869.4)
(1280 2280 1787.45)
(800 2240 2211.63)
(920 2240 2124.6)
(6920 2240 1855.2)
(6960 2240 1858.9)
(440 2200 2187.17)
(840 2200 2223.01)
(960 2200 2101.33)
(1320 2200 1764.48)
(6920 2200 1870.67)
(1240 2160 1856.94)
(6320 2160 1930.32)
(1000 2120 2104.56)
(1280 2120 1867.86)
(1040 2080 2069.18)
(1440 2080 1777.07)
(1120 2040 2029.61)
(1080 2000 2056.83)
(1120 2000 2034.25)
(1400 2000 1834.53)
(1480 2000 1787.23)
(680 1960 2219.27)
(1160 1960 2011.55)
(6360 1960 1904.86)
(6400 1960 1907.42)
(1480 1920 1787.07)
(1240 1880 2015.46)
(1480 1880 1802.35)
(80 1840 2010.77)
(1200 1840 2030.5)
(1520 1800 1759.93)
(1240 1760 2020.8)
(1560 1760 1775.19)
(1160 1720 2184.58)
(1320 1720 2013.05)
(1680 1720 1779.71)
(1280 1680 2041.77)
(1640 1640 1776.28)
(1680 1640 1774.53)
(1760 1640 1783.52)
(1200 1600 2187.42)
(1640 1600 1798.52)
(1720 1600 1794.69)
(1800 1600 1780.7)
(1280 1560 2241.18)
(1680 1520 1842.38)
(1840 1520 1789.05)
(1400 1480 2121.64)
(1720 1480 1838.74)
(1760 1440 1827.51)
(1880 1440 1795.51)
(1520 1400 2075.23)
(1560 1360 2086.12)
(1680 1320 2018.76)
(1880 1320 1802.99)
(1920 1320 1790.67)
(2000 1320 1796.16)
(160 1280 1855.21)
(200 1280 1871.38)
(120 1240 1833.65)
(1720 1240 2060.11)
(2080 1240 1788.95)
(2120 1160 1801.93)
(280 1120 1902.49)
(1840 1120 2099.8)
(2160 1080 1822.67)
(2200 1080 1793.81)
(2280 1080 1771.96)
(2360 1080 1784.48)
(1840 1040 2275.12)
(2000 1040 2029.79)
(2280 1000 1837.68)
(2400 1000 1821.59)
(5080 1000 1896.85)
(2440 960 1853.66)
(2480 880 1870.84)
(2640 880 1820.36)
(2920 880 1779.77)
(3800 880 1812.25)
(4280 880 1790.94)
(4440 880 1786.19)
(4480 880 1831.37)
(5080 880 1970.75)
(5120 880 1930.58)
(5280 880 1823.15)
(2200 840 2193.59)
(2440 840 1977.67)
(3160 840 1778.32)
(3880 840 1818.73)
(3920 840 1806.33)
(3520 800 1796.61)
(4040 800 1856.47)
(4760 800 2084.09)
(5440 800 1837.65)
(2440 760 2065.02)
(2480 760 2009.54)
(5000 760 2035.82)
(5160 760 1923.49)
(5480 760 1857.9)
(2560 720 2044.95)
(2640 720 2045.21)
(2880 720 2011.18)
(4960 720 2065.63)
(5360 720 1920.27)
(680 680 1924.53)
(2600 680 2105.63)
(3040 680 1987.14)
(4560 680 2174.26)
(5120 680 1967.27)
(5160 680 1968.63)
(5400 680 1953.54)
(5520 680 1887.59)
(2400 640 2332.19)
(2440 640 2302.91)
(5040 640 2042.3)
(680 600 1899.49)
(2520 600 2304.2)
(5480 600 1960.77)
(3000 560 2162.56)
(4320 560 2190.45)
(3920 520 2223.82)
(3240 440 2304.34)
(3280 440 2288.77)
(3360 440 2305.91)
(5760 400 1826.67)
(5800 320 1861.36)
(1840 200 2080.04)
(1800 120 2034.92)
(1920 80 2060.2)
(5200 80 1964.6)
(1720 40 1992.56)
(1880 40 2036.39)
(0 6520 2212.96)
(8000 4960 1419.41)
(8000 4840 1454.27)
(0 4600 2400.72)
(8000 4440 1553.13)
(8000 4360 1614.82)
(0 3520 2302.38)
(8000 3440 1667.49)
(0 2680 2178.89)
(0 1480 1843.06)
(0 1040 1794.46)
(400 8000 1689.93)
(560 8000 1768.37)
(680 8000 1778.99)
(880 8000 1810.69)
(1240 8000 1927.17)
(1560 8000 2053.66)
(1880 0 2036.39)
(2160 8000 2296.25)
(2520 8000 2293.15)
(2520 0 2101.51)
(2560 8000 2278.25)
(2640 8000 2266.62)
(2680 8000 2095.55)
(2760 8000 1938.49)
(2880 8000 1866.69)
(2960 8000 1956.12)
(3000 8000 1784.82)
(3560 0 2155.06)
(520 7960 1786.13)
(1200 7960 1950.76)
(1280 7960 1965.88)
(1360 7960 1995.93)
(2120 7960 2308.05)
(2400 7960 2375.31)
(2440 7960 2329.5)
(2480 7960 2239.11)
(2600 7960 2082.96)
(2640 7960 2174.95)
(2680 7960 2159.02)
(2800 7960 1917.11)
(2880 7960 1938.86)
(2920 7960 1849.53)
(3000 7960 1787.77)
(3040 7960 1784.45)
(840 7920 1855.43)
(1560 7920 2101.76)
(2520 7920 2110.35)
(2560 7920 2084.45)
(2600 7920 2064.62)
(2640 7920 2116.44)
(2680 7920 2075.64)
(2720 7920 2086.35)
(2800 7920 1934.99)
(2920 7920 1855.97)
(2960 7920 1831.46)
(3200 7920 1690.96)
(3240 7920 1675.36)
(760 7880 1851.59)
(1680 7880 2162.66)
(2400 7880 2252.32)
(2680 7880 2077.69)
(2720 7880 2042.77)
(2760 7880 2026.5)
(2800 7880 2003.71)
(2840 7880 2014.63)
(2880 7880 2012.86)
(2920 7880 1883.34)
(2320 7840 2424.67)
(2360 7840 2377.41)
(2400 7840 2257.59)
(2560 7840 2163.35)
(2680 7840 2102.31)
(2840 7840 2024.92)
(2920 7840 1905.67)
(3200 7840 1740.56)
(760 7800 1888.39)
(2320 7800 2440.27)
(2400 7800 2254.21)
(2440 7800 2232.74)
(2560 7800 2168.55)
(2600 7800 2147.22)
(2640 7800 2137.55)
(2720 7800 2143.6)
(2840 7800 2010.63)
(2880 7800 1984.75)
(3000 7800 1890.46)
(3280 7800 1710.16)
(360 7760 1825.91)
(2360 7760 2313.27)
(2600 7760 2143.08)
(2680 7760 2098.5)
(2880 7760 1990.89)
(2920 7760 1963)
(2960 7760 1887.91)
(3000 7760 1898.92)
(3160 7760 1813.9)
(3320 7760 1688.31)
(2280 7720 2467.91)
(2320 7720 2391.35)
(2360 7720 2359.31)
(2400 7720 2329.13)
(2440 7720 2217.85)
(2640 7720 2071.39)
(2680 7720 2073.29)
(2800 7720 2055.75)
(2880 7720 1968.13)
(3080 7720 1935.96)
(3160 7720 1825.69)
(3280 7720 1706.6)
(3320 7720 1668.79)
(520 7680 1910.84)
(2360 7680 2261.79)
(2440 7680 2142.88)
(2600 7680 2102.23)
(2680 7680 2074.35)
(2960 7680 1856.29)
(3160 7680 1829.51)
(3240 7680 1786.75)
(3280 7680 1746.64)
(4920 7680 1716.67)
(440 7640 1908.66)
(960 7640 2006.12)
(1160 7640 2064.48)
(1400 7640 2111.99)
(1680 7640 2219.79)
(2320 7640 2138.04)
(2360 7640 2119.87)
(2400 7640 2094.43)
(2520 7640 2092.95)
(2560 7640 2072.83)
(2600 7640 2052.1)
(2840 7640 1922.51)
(3080 7640 1882.55)
(4880 7640 1714.11)
(120 7600 1873.32)
(1440 7600 2146.47)
(1560 7600 2164.49)
(1960 7600 2397.71)
(2200 7600 2509.63)
(2240 7600 2369.73)
(2280 7600 2133.78)
(2400 7600 2075.07)
(2520 7600 2107.6)
(5680 7600 1688.85)
(80 7560 1870.27)
(1520 7560 2161.82)
(1600 7560 2193.38)
(2440 7560 2035.04)
(2520 7560 2100.5)
(2640 7560 1941.54)
(3280 7560 1699.16)
(3320 7560 1674.67)
(120 7520 1902.01)
(2160 7520 2521.15)
(2200 7520 2267.52)
(2240 7520 2140.34)
(2280 7520 2119.12)
(2320 7520 2097.77)
(2480 7520 2106.12)
(2520 7520 2046.61)
(2560 7520 2003.05)
(4960 7520 1693.69)
(1960 7480 2414.26)
(2280 7480 2189.35)
(2320 7480 2098.37)
(2400 7480 2055.23)
(2560 7480 1968.94)
(2600 7480 1945.65)
(1440 7440 2286.97)
(1600 7440 2253.58)
(1960 7440 2411.1)
(2160 7440 2434.25)
(2200 7440 2312.6)
(2240 7440 2298.22)
(2320 7440 2087.16)
(2400 7440 2061.66)
(2440 7440 2064.68)
(2680 7440 1840.92)
(1480 7400 2318.14)
(1520 7400 2318.41)
(1560 7400 2283.8)
(1680 7400 2293.99)
(1920 7400 2412.41)
(2080 7400 2287.03)
(2160 7400 2396.57)
(2240 7400 2317.97)
(2400 7400 2081.37)
(1720 7360 2322.38)
(1960 7360 2269.96)
(2040 7360 2227.05)
(2280 7360 2102.93)
(2320 7360 2081.77)
(2360 7360 2121.8)
(2560 7360 1962.2)
(2680 7360 1791.6)
(1800 7320 2373.19)
(1880 7320 2365.89)
(2080 7320 2207.93)
(2200 7320 2167.49)
(2240 7320 2121.44)
(2400 7320 2055.07)
(2560 7320 1950.25)
(2600 7320 1884.19)
(1360 7280 2291.52)
(1520 7280 2353.07)
(1760 7280 2387.37)
(1840 7280 2387.28)
(1880 7280 2382.35)
(2160 7280 2166.14)
(2320 7280 2075.57)
(2520 7280 1964.39)
(2560 7280 1944.33)
(1760 7240 2409.5)
(1960 7240 2276.26)
(2600 7240 1860.61)
(1800 7200 2424.5)
(1680 7160 2457.58)
(1800 7160 2440.71)
(2400 7160 2049.18)
(1720 7120 2479.09)
(2400 7120 2047.57)
(1880 7080 2509.5)
(1960 7080 2324.09)
(1880 7040 2620.22)
(1920 7040 2599.83)
(1480 7000 2480.58)
(1880 7000 2619.94)
(5720 7000 1758.02)
(1560 6960 2544.1)
(1840 6960 2609.83)
(1920 6960 2567.22)
(1960 6960 2359.55)
(1800 6920 2626.53)
(1880 6920 2570.12)
(2200 6880 2239.39)
(5600 6880 1760.2)
(1680 6840 2655.32)
(1800 6840 2671.56)
(1840 6840 2655.65)
(1880 6840 2458.65)
(1960 6840 2415.92)
(2000 6840 2394.05)
(1760 6800 2689.8)
(1960 6800 2471.41)
(2000 6800 2388.1)
(2280 6800 2209.37)
(2000 6760 2376.67)
(2280 6760 2212.28)
(2400 6760 2190.56)
(1480 6720 2593.26)
(1680 6720 2690.55)
(1720 6720 2673.22)
(1800 6720 2619.15)
(1840 6720 2595.68)
(1880 6720 2588.97)
(1920 6720 2592.12)
(2000 6720 2373)
(2360 6720 2201.05)
(1520 6680 2623.27)
(1760 6680 2626.49)
(1840 6680 2593.01)
(1920 6680 2559.37)
(1960 6680 2452.15)
(2000 6680 2370.34)
(1720 6640 2669.99)
(1880 6640 2556.79)
(1920 6640 2525.06)
(2000 6640 2342.84)
(2280 6640 2141.88)
(2400 6640 2141.06)
(2520 6640 2102.68)
(1520 6600 2652.76)
(1800 6600 2589.46)
(1840 6600 2552.66)
(1920 6600 2507.33)
(2000 6600 2318.34)
(2200 6600 2230.22)
(2400 6600 2108.73)
(2440 6600 2107.54)
(2480 6600 2097.65)
(2760 6600 1971.99)
(2840 6600 1947.51)
(2040 6560 2284.04)
(2320 6560 2117.14)
(2360 6560 2083.09)
(1480 6520 2610.26)
(2000 6520 2293.53)
(2160 6520 2215.98)
(2240 6520 2173.14)
(2280 6520 2140.52)
(2400 6520 2053.87)
(2440 6520 2052.66)
(2680 6520 1955.73)
(2800 6520 1900)
(1560 6480 2574.47)
(1920 6480 2343.07)
(1960 6480 2316.96)
(2160 6480 2209.86)
(2320 6480 2020.8)
(2360 6480 2018.57)
(2440 6480 2028.34)
(2760 6480 1902.14)
(1520 6440 2561.15)
(1640 6440 2474.57)
(2000 6440 2253.93)
(2080 6440 2184.29)
(2200 6440 2185.65)
(2280 6440 2017.48)
(2360 6440 1997.39)
(3000 6440 1829.48)
(1360 6400 2638.9)
(1440 6400 2607.32)
(1520 6400 2552.54)
(1600 6400 2495.82)
(2960 6400 1835.51)
(3040 6400 1829.33)
(3120 6400 1771.23)
(1680 6360 2371.08)
(1720 6360 2338.56)
(2120 6360 2161.88)
(3000 6360 1830.58)
(3120 6360 1765.7)
(1480 6320 2499.9)
(1520 6320 2489.73)
(1560 6320 2472.96)
(1680 6320 2341.77)
(1760 6320 2270.94)
(1920 6320 2219.79)
(2080 6320 2106.15)
(3040 6320 1830.55)
(3080 6320 1823.81)
(1640 6280 2318.37)
(1720 6280 2298.24)
(1760 6280 2249.39)
(1960 6280 2177.4)
(2000 6280 2157.38)
(3120 6280 1806.17)
(6280 6280 1835.04)
(1640 6240 2295.88)
(1760 6240 2146.34)
(1920 6240 2147.76)
(2120 6240 1929.43)
(2680 6240 1849.74)
(3080 6240 1820.08)
(6240 6240 1836.88)
(1360 6200 2479.84)
(1720 6200 2147.83)
(1960 6200 2087.84)
(2080 6200 1941.83)
(6280 6200 1822.76)
(1240 6160 2552.87)
(1360 6160 2462.46)
(1520 6160 2332.72)
(2000 6160 2047.84)
(3120 6160 1810.12)
(3200 6160 1794.52)
(3240 6160 1771.78)
(1120 6120 2653.28)
(1160 6120 2609.77)
(1200 6120 2563.18)
(2000 6120 2035.78)
(3200 6120 1797.37)
(1200 6080 2539.64)
(1360 6080 2467.71)
(1960 6080 1951.76)
(3280 6080 1778.75)
(1120 6040 2660.4)
(1200 6040 2540.31)
(1240 6040 2532.51)