/*--------------------------------*- C++ -*----------------------------------*\
| =========                 |                                                 |
| \\      /  F ield         | OpenFOAM: The Open Source CFD Toolbox           |
|  \\    /   O peration     | Version:  v1812                                 |
|   \\  /    A nd           | Web:      www.OpenFOAM.com                      |
|    \\/     M anipulation  |                                                 |
\*---------------------------------------------------------------------------*/
FoamFile
{
    version     2.0;
    format      ascii;
    class       dictionary;
    location    "system";
    object      fvSchemes;
}
// * * * * * * * * * * * * * * * * * * * * * * * * * * * * * * * * * * * * * //

ddtSchemes
{
  //  ddt(alpha)         CrankNicolson 0.1;
    default         Euler;//CrankNicolson 0.3; //Euler;
}

gradSchemes
{
    default         Gauss linear;
}

divSchemes
{
    div(rhoPhi,U)    Gauss upwind; //linearUpwind grad(U);
    div(phi,alpha)   Gauss Gamma 1; // qui Gamma 1  e sotto
    div(phirb,alpha) Gauss linear; // linear mi permettono di avere un ottima interfaccia
    div(((rho*nuEff)*dev2(T(grad(U))))) Gauss linear;
    div(rhoCpPhi,T)  Gauss upwind; //limitedLinear 1; // EB add
}

laplacianSchemes
{
    default         Gauss linear corrected;
}

interpolationSchemes
{
    default         linear;
}

snGradSchemes
{
    default         corrected;
}


// ************************************************************************* //
